[General]
network = SmartWasteNetwork
sim-time-limit = 3000s

**.transmissionInterval = 60s
