[General]
network = SmartBinNetwork
sim-time-limit = 86400s